text-to-sim/code_executions/6ef5ca86-cc79-4519-911b-01ff7110a539/data/ieee39_out.txt
ANDES 1.10.0.post9+gd2cf9714c
Copyright (C) 2015-2026 Hantao Cui

ANDES comes with ABSOLUTELY NO WARRANTY
Case file: /Users/buxinshe/mac-git/pfagent/text-to-sim/code_executions/6ef5ca86-cc79-4519-911b-01ff7110a539/data/ieee39.xlsx
Report time: 02/22/2026 05:29:59 PM

Power flow converged in 5 iterations.
Flat-start: No

Statistics:
Buses                             39
Generators                        14
Committed Gens                    14
Loads                             19
Shunts                             2
Lines                             46
Transformers                      12
Areas                              2

EXTENDED SUMMARY:
                              P (pu)            Q (pu)

Generation                    59.344             27.97
Load                          58.568            27.806

BUS DATA:
                            Bus Name            Vm(pu)          Va(rad.)

1                               BUS1            1.0253          -0.12204
2                               BUS2            1.0037        -0.0020478
3                              LOAD3           0.97071         -0.086634
4                              LOAD4           0.97631          -0.10913
5                               BUS5           0.98189          -0.10075
6                               BUS6           0.98671         -0.089192
7                              LOAD7           0.92995          -0.13087
8                              LOAD8           0.94375          -0.14358
9                               BUS9            1.0061          -0.17392
10                             BUS10            1.0037          -0.03697
11                             BUS11           0.99718         -0.056171
12                            LOAD12           0.99576         -0.078832
13                             BUS13           0.99828         -0.049119
14                             BUS14           0.98726          -0.07124
15                            LOAD15           0.97821         -0.055976
16                            LOAD16           0.99025         -0.019448
17                             BUS17           0.98648          -0.04247
18                            LOAD18           0.97879         -0.067431
19                             BUS19            1.0424          0.090929
20                            LOAD20            1.0037          0.086466
21                            LOAD21            1.0025          0.024799
22                             BUS22            1.0341           0.10514
23                            LOAD23            1.0286           0.10159
24                            LOAD24           0.99946         -0.017379
25                            LOAD25            1.0037          0.057095
26                            LOAD26            1.0075          0.012448
27                            LOAD27           0.99115         -0.034678
28                            LOAD28            1.0187          0.077288
29                            LOAD29            1.0232           0.12782
30                             GEN30            1.0475          0.042081
31                             GEN31              1.04            0.0191
32                             GEN32            0.9831           0.10447
33                             GEN33            0.9972           0.18229
34                             GEN34            1.0123           0.17654
35                             GEN35            1.0493           0.19306
36                             GEN36            1.0635           0.24053
37                             GEN37            1.0278           0.18049
38                             GEN38            1.0265           0.25298
39                             GEN39              1.03          -0.19129

LINE DATA:
                           Line Name     Fr. Bus (idx)      To Bus (idx)       P From (pu)       Q From (pu)         P To (pu)         Q To (pu)

Line_1                        Line_1                 1                 2           -2.9148           0.60079            2.9462          -0.95122
Line_2                        Line_2                 1                39            2.9148          -0.60079           -2.9067          0.011764
Line_3                        Line_3                 2                 3            5.6183            1.8101           -5.5727           -1.5313
Line_4                        Line_4                 2                25           -4.0645            3.4396            4.2651           -3.3403
Line_5                        Line_5                 3                 4           0.98241          -0.40814          -0.98095           0.22221
Line_6                        Line_6                 3                18           -1.4097          -0.56057            1.4123           0.38847
Line_7                        Line_7                 4                 5          -0.65145          -0.44599           0.65193             0.325
Line_8                        Line_8                 4                14           -2.8676          -0.66303            2.8748           0.64593
Line_9                        Line_9                 5                 6           -4.4196           -1.4763            4.4241            1.4926
Line_10                      Line_10                 5                 8            3.7676            3.0795           -3.7476           -2.9362
Line_11                      Line_11                 6                 7            4.5393            5.8224           -4.5054           -5.4052
Line_12                      Line_12                 6                11           -4.0341          -0.91811            4.0463            0.9246
Line_13                      Line_13                 7                 8            2.1674           -2.9948           -2.1611             2.998
Line_14                      Line_14                 8                 9           0.68875           -1.8218          -0.68047            1.5905
Line_15                      Line_15                 9                39           0.68047           -1.5905          -0.67906           0.38198
Line_16                      Line_16                10                11             4.575             1.102           -4.5662           -1.0801
Line_17                      Line_17                10                13             2.925           0.97421           -2.9212           -1.0064
Line_18                      Line_18                13                14            2.2398           0.82731           -2.2345          -0.93784
Line_19                      Line_19                14                15          -0.64031           0.29191           0.64147          -0.63133
Line_20                      Line_20                15                16           -3.8415          -0.89867             3.856           0.88454
Line_21                      Line_21                16                17            2.5461           0.18273           -2.5415          -0.25442
Line_22                      Line_22                16                19           -5.9812           -1.9823             6.045            2.4463
Line_23                      Line_23                16                21           -3.2902          -0.75744            3.2993           0.65901
Line_24                      Line_24                16                24          -0.42473           -1.5576            0.4255            1.5053
Line_25                      Line_25                17                18            2.9991           0.64109           -2.9923          -0.68847
Line_26                      Line_26                17                27          -0.45768          -0.38667           0.45803          0.076885
Line_27                      Line_27                21                22           -6.0393            -1.809            6.0706            2.0904
Line_28                      Line_28                22                23           0.42937           0.47354          -0.42908           -0.6653
Line_29                      Line_29                23                24             3.539           0.64978           -3.5115          -0.58332
Line_30                      Line_30                25                26            1.3753          -0.48075           -1.3691          0.024222
Line_31                      Line_31                26                27             3.284           0.76004            -3.268          -0.83188
Line_32                      Line_32                26                28           -1.4087          -0.46034            1.4172          -0.24753
Line_33                      Line_33                26                29           -1.8961          -0.49392            1.9163          -0.34556
Line_34                      Line_34                28                29           -3.4772         -0.028469            3.4935         -0.054987
Line_35                      Line_35                 2                30              -2.5           -3.6388               2.5            4.0068
Line_36                      Line_36                31                 6            4.9293            8.0716           -4.9293           -6.3969
Line_37                      Line_37                10                32              -6.5           -1.6531               6.5            2.6755
Line_38                      Line_38                12                11          -0.51938          -0.14261           0.51985           0.15549
Line_39                      Line_39                12                13          -0.68062          -0.15739           0.68142           0.17906
Line_40                      Line_40                19                20           0.24506           -1.4614          -0.24347            1.4928
Line_41                      Line_41                19                33           -6.2901          -0.98487              6.32            1.5914
Line_42                      Line_42                20                34           -5.0565          -0.49043              5.08           0.95991
Line_43                      Line_43                22                35              -6.5           -2.5639               6.5            3.2498
Line_44                      Line_44                23                36           -5.5849          -0.83048               5.6            1.6501
Line_45                      Line_45                25                37           -5.3803           -1.5815               5.4            2.3424
Line_46                      Line_46                29                38           -8.2448          -0.86845               8.3            1.9443

OTHER ALGEBRAIC VARIABLES:
                                    

q PV 1                        4.0068
q PV 2                        8.4716
q PV 3                        2.6755
q PV 4                        1.5914
q PV 5                       0.95991
q PV 6                        3.2498
q PV 7                        1.6501
q PV 8                        2.3424
q PV 9                        1.9443
q PV 11                      0.42313
q PV 12                       2.0323
q PV 13                      0.65961
q PV 14                      -4.9305
q Slack 10                    2.8937
p Slack 10                   0.41422

